<flows>

<flow id="0" from="a" to="l" begin="0" end="40" number="50" />

<flow id="1" from="a" to="j" begin="20" end="60" number="50" />

<flow id="2" from="f" to="l" begin="50" end="90" number="50" />

</flows>
