<nodes>

<node id="0" x="0" y="0" />

<node id="1" x="100" y="0" />

<node id="2" x="200" y="0" />

<node id="3" x="0" y="100" />

<node id="4" x="100" y="100" />

<node id="5" x="200" y="100" />

<node id="6" x="0" y="200" />

<node id="7" x="100" y="200" />

<node id="8" x="200" y="200" />

</nodes>
