<?xml version="1.0" encoding="UTF-8"?>

<!-- generated on Fri Nov 11 20:37:23 2016 by SUMO duarouter Version 0.28.0
<?xml version="1.0" encoding="UTF-8"?>

<configuration xmlns:xsi="http://www.w3.org/2001/XMLSchema-instance" xsi:noNamespaceSchemaLocation="http://sumo.dlr.de/xsd/duarouterConfiguration.xsd">

    <input>
        <net-file value="main.net.xml"/>
        <flow-files value="main.flow.xml"/>
    </input>

    <output>
        <output-file value="main.rou.xml"/>
    </output>

</configuration>
-->

<routes xmlns:xsi="http://www.w3.org/2001/XMLSchema-instance" xsi:noNamespaceSchemaLocation="http://sumo.dlr.de/xsd/routes_file.xsd">
    <vehicle id="0.0" depart="0.00">
        <route edges="a d i l"/>
    </vehicle>
    <vehicle id="0.1" depart="4.00">
        <route edges="a d i l"/>
    </vehicle>
    <vehicle id="1.0" depart="5.00">
        <route edges="a d g j"/>
    </vehicle>
    <vehicle id="2.0" depart="5.00">
        <route edges="f i l"/>
    </vehicle>
    <vehicle id="2.1" depart="7.50">
        <route edges="f i l"/>
    </vehicle>
    <vehicle id="0.2" depart="8.00">
        <route edges="a d i l"/>
    </vehicle>
    <vehicle id="1.1" depart="10.00">
        <route edges="a d g j"/>
    </vehicle>
    <vehicle id="2.2" depart="10.00">
        <route edges="f i l"/>
    </vehicle>
    <vehicle id="0.3" depart="12.00">
        <route edges="a d i l"/>
    </vehicle>
    <vehicle id="2.3" depart="12.50">
        <route edges="f i l"/>
    </vehicle>
    <vehicle id="1.2" depart="15.00">
        <route edges="a d g j"/>
    </vehicle>
    <vehicle id="2.4" depart="15.00">
        <route edges="f i l"/>
    </vehicle>
    <vehicle id="0.4" depart="16.00">
        <route edges="a d i l"/>
    </vehicle>
    <vehicle id="2.5" depart="17.50">
        <route edges="f i l"/>
    </vehicle>
    <vehicle id="0.5" depart="20.00">
        <route edges="a d i l"/>
    </vehicle>
    <vehicle id="1.3" depart="20.00">
        <route edges="a d g j"/>
    </vehicle>
    <vehicle id="2.6" depart="20.00">
        <route edges="f i l"/>
    </vehicle>
    <vehicle id="2.7" depart="22.50">
        <route edges="f i l"/>
    </vehicle>
    <vehicle id="0.6" depart="24.00">
        <route edges="a d i l"/>
    </vehicle>
    <vehicle id="1.4" depart="25.00">
        <route edges="a d g j"/>
    </vehicle>
    <vehicle id="2.8" depart="25.00">
        <route edges="f i l"/>
    </vehicle>
    <vehicle id="2.9" depart="27.50">
        <route edges="f i l"/>
    </vehicle>
    <vehicle id="0.7" depart="28.00">
        <route edges="a d i l"/>
    </vehicle>
    <vehicle id="1.5" depart="30.00">
        <route edges="a d g j"/>
    </vehicle>
    <vehicle id="0.8" depart="32.00">
        <route edges="a d i l"/>
    </vehicle>
    <vehicle id="1.6" depart="35.00">
        <route edges="a d g j"/>
    </vehicle>
    <vehicle id="0.9" depart="36.00">
        <route edges="a d i l"/>
    </vehicle>
</routes>
