<?xml version="1.0" encoding="iso-8859-1"?>
<configuration xmlns:xsi="http://www.w3.org/2001/XMLSchema-instance"
 xsi:noNamespaceSchemaLocation="http://sumo.sf.net/xsd/sumoConfiguration.xsd">
    <input>
        <net-file value="main.net.xml"/>
        <route-files value="main.rou.xml"/>
    </input>

    <gui-settings-file value="gui-settings.cfg"/>

</configuration>
