<?xml version="1.0" encoding="UTF-8"?>

<!-- generated on Fri Nov 11 20:21:08 2016 by SUMO duarouter Version 0.28.0
<?xml version="1.0" encoding="UTF-8"?>

<configuration xmlns:xsi="http://www.w3.org/2001/XMLSchema-instance" xsi:noNamespaceSchemaLocation="http://sumo.dlr.de/xsd/duarouterConfiguration.xsd">

    <input>
        <net-file value="main.net.xml"/>
        <flow-files value="main.flow.xml"/>
    </input>

    <output>
        <output-file value="main.rou.xml"/>
    </output>

</configuration>
-->

<routes xmlns:xsi="http://www.w3.org/2001/XMLSchema-instance" xsi:noNamespaceSchemaLocation="http://sumo.dlr.de/xsd/routes_file.xsd">
    <vehicle id="0.0" depart="0.00">
        <route edges="a d i l"/>
    </vehicle>
    <vehicle id="0.1" depart="13.33">
        <route edges="a d i l"/>
    </vehicle>
    <vehicle id="1.0" depart="20.00">
        <route edges="a d g j"/>
    </vehicle>
    <vehicle id="0.2" depart="26.67">
        <route edges="a d i l"/>
    </vehicle>
    <vehicle id="1.1" depart="33.33">
        <route edges="a d g j"/>
    </vehicle>
    <vehicle id="1.2" depart="46.67">
        <route edges="a d g j"/>
    </vehicle>
    <vehicle id="2.0" depart="50.00">
        <route edges="f i l"/>
    </vehicle>
    <vehicle id="2.1" depart="58.00">
        <route edges="f i l"/>
    </vehicle>
    <vehicle id="2.2" depart="66.00">
        <route edges="f i l"/>
    </vehicle>
    <vehicle id="2.3" depart="74.00">
        <route edges="f i l"/>
    </vehicle>
    <vehicle id="2.4" depart="82.00">
        <route edges="f i l"/>
    </vehicle>
</routes>
